Input Parameters:
   integrator                     = md
   tinit                          = 0
   dt                             = 0.002
   nsteps                         = 2500000
   init-step                      = 0
   simulation-part                = 1
   mts                            = false
   comm-mode                      = Angular
   nstcomm                        = 1000
   bd-fric                        = 0
   ld-seed                        = -621281281
   emtol                          = 10
   emstep                         = 0.01
   niter                          = 20
   fcstep                         = 0
   nstcgsteep                     = 1000
   nbfgscorr                      = 10
   rtpi                           = 0.05
   nstxout                        = 5000
   nstvout                        = 5000
   nstfout                        = 5000
   nstlog                         = 5000
   nstcalcenergy                  = 100
   nstenergy                      = 5000
   nstxout-compressed             = 1000
   compressed-x-precision         = 1000
   cutoff-scheme                  = Verlet
   nstlist                        = 1
   pbc                            = xyz
   periodic-molecules             = false
   verlet-buffer-tolerance        = 0.005
   rlist                          = 1
   coulombtype                    = PME
   coulomb-modifier               = Potential-shift
   rcoulomb-switch                = 0
   rcoulomb                       = 1
   epsilon-r                      = 1
   epsilon-rf                     = inf
   vdw-type                       = Cut-off
   vdw-modifier                   = Potential-shift
   rvdw-switch                    = 0
   rvdw                           = 1
   DispCorr                       = No
   table-extension                = 1
   fourierspacing                 = 0.12
   fourier-nx                     = 24
   fourier-ny                     = 24
   fourier-nz                     = 24
   pme-order                      = 4
   ewald-rtol                     = 1e-05
   ewald-rtol-lj                  = 0.001
   lj-pme-comb-rule               = Geometric
   ewald-geometry                 = 3d
   epsilon-surface                = 0
   ensemble-temperature-setting   = constant
   ensemble-temperature           = 300
   tcoupl                         = V-rescale
   nsttcouple                     = 10
   nh-chain-length                = 0
   print-nose-hoover-chain-variables = false
   pcoupl                         = No
   pcoupltype                     = Isotropic
   nstpcouple                     = -1
   tau-p                          = 1
   compressibility (3x3):
      compressibility[    0]={ 0.00000e+00,  0.00000e+00,  0.00000e+00}
      compressibility[    1]={ 0.00000e+00,  0.00000e+00,  0.00000e+00}
      compressibility[    2]={ 0.00000e+00,  0.00000e+00,  0.00000e+00}
   ref-p (3x3):
      ref-p[    0]={ 0.00000e+00,  0.00000e+00,  0.00000e+00}
      ref-p[    1]={ 0.00000e+00,  0.00000e+00,  0.00000e+00}
      ref-p[    2]={ 0.00000e+00,  0.00000e+00,  0.00000e+00}
   refcoord-scaling               = No
   posres-com (3):
      posres-com[0]= 0.00000e+00
      posres-com[1]= 0.00000e+00
      posres-com[2]= 0.00000e+00
   posres-comB (3):
      posres-comB[0]= 0.00000e+00
      posres-comB[1]= 0.00000e+00
      posres-comB[2]= 0.00000e+00
   QMMM                           = false
qm-opts:
   ngQM                           = 0
   constraint-algorithm           = Lincs
   continuation                   = false
   Shake-SOR                      = false
   shake-tol                      = 0.0001
   lincs-order                    = 4
   lincs-iter                     = 1
   lincs-warnangle                = 30
   nwall                          = 0
   wall-type                      = 9-3
   wall-r-linpot                  = -1
   wall-atomtype[0]               = -1
   wall-atomtype[1]               = -1
   wall-density[0]                = 0
   wall-density[1]                = 0
   wall-ewald-zfac                = 3
   pull                           = false
   awh                            = false
   rotation                       = false
   interactiveMD                  = false
   disre                          = No
   disre-weighting                = Conservative
   disre-mixed                    = false
   dr-fc                          = 1000
   dr-tau                         = 0
   nstdisreout                    = 100
   orire-fc                       = 0
   orire-tau                      = 0
   nstorireout                    = 100
   free-energy                    = no
   cos-acceleration               = 0
   deform (3x3):
      deform[    0]={ 0.00000e+00,  0.00000e+00,  0.00000e+00}
      deform[    1]={ 0.00000e+00,  0.00000e+00,  0.00000e+00}
      deform[    2]={ 0.00000e+00,  0.00000e+00,  0.00000e+00}
   simulated-tempering            = false
   swapcoords                     = no
   userint1                       = 0
   userint2                       = 0
   userint3                       = 0
   userint4                       = 0
   userreal1                      = 0
   userreal2                      = 0
   userreal3                      = 0
   userreal4                      = 0
   applied-forces:
     electric-field:
       x:
         E0                       = 0
         omega                    = 0
         t0                       = 0
         sigma                    = 0
       y:
         E0                       = 0
         omega                    = 0
         t0                       = 0
         sigma                    = 0
       z:
         E0                       = 0
         omega                    = 0
         t0                       = 0
         sigma                    = 0
     density-guided-simulation:
       active                     = false
       group                      = protein
       similarity-measure         = inner-product
       atom-spreading-weight      = unity
       force-constant             = 1e+09
       gaussian-transform-spreading-width = 0.2
       gaussian-transform-spreading-range-in-multiples-of-width = 4
       reference-density-filename = reference.mrc
       nst                        = 1
       normalize-densities        = true
       adaptive-force-scaling     = false
       adaptive-force-scaling-time-constant = 4
       shift-vector               =
       transformation-matrix      =
     qmmm-cp2k:
       active                     = false
       qmgroup                    = System
       qmmethod                   = PBE
       qmfilenames                =
       qmcharge                   = 0
       qmmultiplicity             = 1
grpopts:
   nrdf:          48
   ref-t:         300
   tau-t:         0.1
annealing:          No
annealing-npoints:           0
   acc:	           0           0           0
   nfreeze:           N           N           N
   energygrp-flags[  0]: 0

The -nsteps functionality is deprecated, and may be removed in a future version. Consider using gmx convert-tpr -nsteps or changing the appropriate .mdp file field.

Overriding nsteps with value passed on the command line: 100000 steps, 200 ps

Update task can not run on the GPU, because the following condition(s) were not satisfied:

Either PME or short-ranged non-bonded interaction tasks must run on the GPU.
Compatible GPUs must have been found.
PLUMED is not supported.

Initializing Domain Decomposition on 1 ranks
Dynamic load balancing: auto
Using update groups, nr 10, average size 2.2 atoms, max. radius 0.104 nm
Minimum cell size due to atom displacement: 0.004 nm
Initial maximum distances in bonded interactions:
    two-body bonded interactions: 0.383 nm, LJ-14, atoms 9 19
  multi-body bonded interactions: 0.383 nm, Proper Dih., atoms 9 19
Minimum cell size due to bonded interactions: 0.421 nm
Using 0 separate PME ranks because: there are too few total ranks for efficient splitting
Optimizing the DD grid for 1 cells with a minimum initial size of 0.421 nm
The maximum allowed number of cells is: X 6 Y 6 Z 6
Domain decomposition grid 1 x 1 x 1, separate PME ranks 0
PME domain decomposition: 1 x 1 x 1
comm-mode angular will give incorrect results when the comm group partially crosses a periodic boundary

The initial number of communication pulses is:
The initial domain decomposition cell size is:

The maximum allowed distance for atom groups involved in interactions is:
                 non-bonded interactions           1.208 nm
            two-body bonded interactions  (-rdd)   1.208 nm
          multi-body bonded interactions  (-rdd)   1.208 nm

When dynamic load balancing gets turned on, these settings will change to:
The maximum number of communication pulses is:
The minimum size for domain decomposition cells is 1.208 nm
The requested allowed shrink of DD cells (option -dds) is: 0.80
The allowed shrink of domain decomposition cells is:
The maximum allowed distance for atom groups involved in interactions is:
                 non-bonded interactions           1.208 nm
            two-body bonded interactions  (-rdd)   1.208 nm
          multi-body bonded interactions  (-rdd)   1.208 nm

Using 1 MPI process

Non-default thread affinity set, disabling internal thread affinity

Using 1 OpenMP thread

System total charge: -0.000
Will do PME sum in reciprocal space for electrostatic interactions.

Using a Gaussian width (1/beta) of 0.320163 nm for Ewald
Potential shift: LJ r^-12: -1.000e+00 r^-6: -1.000e+00, Ewald -1.000e-05
Initialized non-bonded Coulomb Ewald tables, spacing: 9.33e-04 size: 1073

Generated table with 1000 data points for 1-4 COUL.
Tabscale = 500 points/nm
Generated table with 1000 data points for 1-4 LJ6.
Tabscale = 500 points/nm
Generated table with 1000 data points for 1-4 LJ12.
Tabscale = 500 points/nm

Using SIMD 4x8 nonbonded short-range kernels

Using a 4x8 pair-list setup:
  updated every 1 steps, buffer 0.000 nm, rlist 1.000 nm
At tolerance 0.005 kJ/mol/ps per atom, equivalent classical 1x1 list would be:
  updated every 1 steps, buffer 0.000 nm, rlist 1.000 nm

Using Lorentz-Berthelot Lennard-Jones combination rule
Removing pbc first time

Linking all bonded interactions to atoms

Initializing LINear Constraint Solver

The number of constraints is 12

There are: 22 Atoms

Atom distribution over 1 domains: av 22 stddev 0 min 22 max 22

Constraining the starting coordinates (step 0)

Constraining the coordinates at t0-dt (step 0)
Center of mass motion removal mode is Angular
We have the following groups for center of mass motion removal:
  0:  rest
RMS relative constraint deviation after constraining: 3.29e-06
Initial temperature: 370.615 K

PLUMED: PLUMED is starting
PLUMED: Version: 2.9.1 (git: Unknown) compiled on Nov 25 2024 at 14:05:50
PLUMED: Please cite these papers when using PLUMED [1][2]
PLUMED: For further information see the PLUMED web page at http://www.plumed.org
PLUMED: Root: /opt/sw-fnwi/hims/2024/spack/opt/spack/linux-almalinux8-zen4/gcc-12.4.0/plumed-2.9.1-2tpjn63wja63j4az7evpo33aeyyqpsyb/lib/plumed
PLUMED: For installed feature, see /opt/sw-fnwi/hims/2024/spack/opt/spack/linux-almalinux8-zen4/gcc-12.4.0/plumed-2.9.1-2tpjn63wja63j4az7evpo33aeyyqpsyb/lib/plumed/src/config/config.txt
PLUMED: Molecular dynamics engine: gromacs
PLUMED: Precision of reals: 4
PLUMED: Running over 1 node
PLUMED: Number of threads: 1
PLUMED: Cache line size: 512
PLUMED: Number of atoms: 22
PLUMED: File suffix:
PLUMED: FILE: Colvars/plumed_1.005_-2.953.dat
PLUMED: Action MOLINFO
PLUMED:   with label @0
PLUMED:   pdb file named diala.pdb contains 1 chains
PLUMED:   chain named   contains residues 1 to 3 and atoms 1 to 22
PLUMED: Action UNITS
PLUMED:   with label @1
PLUMED:   length: A = 0.1 nm
PLUMED:   energy: kcal/mol = 4.184 kj/mol
PLUMED:   time: ps
PLUMED:   charge: e
PLUMED:   mass: amu
PLUMED:   using physical units
PLUMED:   inside PLUMED, Boltzmann constant is 0.0019872
PLUMED: Action TORSION
PLUMED:   with label phi
PLUMED:   between atoms 5 7 9 15
PLUMED:   using periodic boundary conditions
PLUMED: Action TORSION
PLUMED:   with label psi
PLUMED:   between atoms 7 9 15 17
PLUMED:   using periodic boundary conditions
PLUMED: Action MATHEVAL
PLUMED:   with label cos_phi
PLUMED:   with arguments phi
PLUMED:   with function : cos(x)
PLUMED:   with variables : x
PLUMED:   function as parsed by lepton: cos(x)
PLUMED:   derivatives as computed by lepton:
PLUMED:     -(sin(x))
PLUMED: Action MATHEVAL
PLUMED:   with label sin_phi
PLUMED:   with arguments phi
PLUMED:   with function : sin(x)
PLUMED:   with variables : x
PLUMED:   function as parsed by lepton: sin(x)
PLUMED:   derivatives as computed by lepton:
PLUMED:     cos(x)
PLUMED: Action MATHEVAL
PLUMED:   with label cos_psi
PLUMED:   with arguments psi
PLUMED:   with function : cos(x)
PLUMED:   with variables : x
PLUMED:   function as parsed by lepton: cos(x)
PLUMED:   derivatives as computed by lepton:
PLUMED:     -(sin(x))
PLUMED: Action MATHEVAL
PLUMED:   with label sin_psi
PLUMED:   with arguments psi
PLUMED:   with function : sin(x)
PLUMED:   with variables : x
PLUMED:   function as parsed by lepton: sin(x)
PLUMED:   derivatives as computed by lepton:
PLUMED:     cos(x)
PLUMED: Action MOVINGRESTRAINT
PLUMED:   with label restraint_phi_cos
PLUMED:   with arguments cos_phi
PLUMED:   added component to this action:  restraint_phi_cos.bias
PLUMED:   step0 500
PLUMED:   at -0.009747
PLUMED:   with force constant 0.000000
PLUMED:   step1 1500
PLUMED:   at -0.009747
PLUMED:   with force constant 200.000000
PLUMED:   step2 4085
PLUMED:   at 0.535827
PLUMED:   with force constant 200.000000
PLUMED:   added component to this action:  restraint_phi_cos.force2
PLUMED:   added component to this action:  restraint_phi_cos.cos_phi_cntr
PLUMED:   added component to this action:  restraint_phi_cos.cos_phi_work
PLUMED:   added component to this action:  restraint_phi_cos.cos_phi_kappa
PLUMED:   added component to this action:  restraint_phi_cos.work
PLUMED:   Bibliography [3]
PLUMED: Action MOVINGRESTRAINT
PLUMED:   with label restraint_phi_sin
PLUMED:   with arguments sin_phi
PLUMED:   added component to this action:  restraint_phi_sin.bias
PLUMED:   step0 500
PLUMED:   at -0.999953
PLUMED:   with force constant 0.000000
PLUMED:   step1 1500
PLUMED:   at -0.999953
PLUMED:   with force constant 200.000000
PLUMED:   step2 4085
PLUMED:   at 0.844328
PLUMED:   with force constant 200.000000
PLUMED:   added component to this action:  restraint_phi_sin.force2
PLUMED:   added component to this action:  restraint_phi_sin.sin_phi_cntr
PLUMED:   added component to this action:  restraint_phi_sin.sin_phi_work
PLUMED:   added component to this action:  restraint_phi_sin.sin_phi_kappa
PLUMED:   added component to this action:  restraint_phi_sin.work
PLUMED:   Bibliography [3]
PLUMED: Action MOVINGRESTRAINT
PLUMED:   with label restraint_psi_cos
PLUMED:   with arguments cos_psi
PLUMED:   added component to this action:  restraint_psi_cos.bias
PLUMED:   step0 500
PLUMED:   at 0.256142
PLUMED:   with force constant 0.000000
PLUMED:   step1 1500
PLUMED:   at 0.256142
PLUMED:   with force constant 200.000000
PLUMED:   step2 5764
PLUMED:   at -0.982287
PLUMED:   with force constant 200.000000
PLUMED:   added component to this action:  restraint_psi_cos.force2
PLUMED:   added component to this action:  restraint_psi_cos.cos_psi_cntr
PLUMED:   added component to this action:  restraint_psi_cos.cos_psi_work
PLUMED:   added component to this action:  restraint_psi_cos.cos_psi_kappa
PLUMED:   added component to this action:  restraint_psi_cos.work
PLUMED:   Bibliography [3]
PLUMED: Action MOVINGRESTRAINT
PLUMED:   with label restraint_psi_sin
PLUMED:   with arguments sin_psi
PLUMED:   added component to this action:  restraint_psi_sin.bias
PLUMED:   step0 500
PLUMED:   at 0.966639
PLUMED:   with force constant 0.000000
PLUMED:   step1 1500
PLUMED:   at 0.966639
PLUMED:   with force constant 200.000000
PLUMED:   step2 5764
PLUMED:   at -0.187381
PLUMED:   with force constant 200.000000
PLUMED:   added component to this action:  restraint_psi_sin.force2
PLUMED:   added component to this action:  restraint_psi_sin.sin_psi_cntr
PLUMED:   added component to this action:  restraint_psi_sin.sin_psi_work
PLUMED:   added component to this action:  restraint_psi_sin.sin_psi_kappa
PLUMED:   added component to this action:  restraint_psi_sin.work
PLUMED:   Bibliography [3]
PLUMED: Action PRINT
PLUMED:   with label @12
PLUMED:   with stride 100
PLUMED:   with arguments sin_phi cos_phi sin_psi cos_psi phi psi cos_phi sin_phi cos_psi sin_psi restraint_phi_cos.bias restraint_phi_cos.force2 restraint_phi_cos.cos_phi_cntr restraint_phi_cos.cos_phi_work restraint_phi_cos.cos_phi_kappa restraint_phi_cos.work restraint_phi_sin.bias restraint_phi_sin.force2 restraint_phi_sin.sin_phi_cntr restraint_phi_sin.sin_phi_work restraint_phi_sin.sin_phi_kappa restraint_phi_sin.work restraint_psi_cos.bias restraint_psi_cos.force2 restraint_psi_cos.cos_psi_cntr restraint_psi_cos.cos_psi_work restraint_psi_cos.cos_psi_kappa restraint_psi_cos.work restraint_psi_sin.bias restraint_psi_sin.force2 restraint_psi_sin.sin_psi_cntr restraint_psi_sin.sin_psi_work restraint_psi_sin.sin_psi_kappa restraint_psi_sin.work
PLUMED:   on file Colvars/COLVAR_1.005_-2.953
PLUMED:   with format  %f
PLUMED: END FILE: Colvars/plumed_1.005_-2.953.dat
PLUMED: Timestep: 0.002000
PLUMED: KbT: 0.596161
PLUMED: Relevant bibliography:
PLUMED:   [1] The PLUMED consortium, Nat. Methods 16, 670 (2019)
PLUMED:   [2] Tribello, Bonomi, Branduardi, Camilloni, and Bussi, Comput. Phys. Commun. 185, 604 (2014)
PLUMED:   [3] Grubmuller, Heymann, and Tavan, Science 271, 997 (1996)
PLUMED: Please read and cite where appropriate!
PLUMED: Finished setup
Started mdrun on rank 0 Thu Oct  9 21:40:07 2025

           Step           Time
              0        0.00000

   Energies (kJ/mol)
           Bond          Angle    Proper Dih. Per. Imp. Dih.          LJ-14
    2.18949e+01    2.24455e+01    5.77743e+01    3.58470e+00    1.63942e+01
     Coulomb-14        LJ (SR)   Coulomb (SR)   Coul. recip.      Potential
    2.03392e+02   -5.99568e+00   -3.61547e+02    8.66107e+00   -3.33958e+01
    Kinetic En.   Total Energy  Conserved En.    Temperature Pressure (bar)
    7.80879e+01    4.46921e+01    4.46921e+01    3.91326e+02    2.98349e+02
    5.22105e-06

	<====  A V E R A G E S  ====>

	Statistics over 100001 steps using 1001 frames

   Energies (kJ/mol)
           Bond          Angle    Proper Dih. Per. Imp. Dih.          LJ-14
    1.40457e+01    4.05515e+01    4.72671e+01    4.13439e+00    1.46404e+01
     Coulomb-14        LJ (SR)   Coulomb (SR)   Coul. recip.      Potential
    1.94185e+02   -3.07490e+00   -3.34275e+02    1.98948e+01   -2.63036e+00
    Kinetic En.   Total Energy  Conserved En.    Temperature Pressure (bar)
    5.96716e+01    5.70413e+01    1.65606e+02    2.99035e+02   -1.73590e+00
   Constr. rmsd
    0.00000e+00

   Total Virial (kJ/mol)
    1.71656e+01    4.42488e+00    4.04204e+00
    4.42491e+00    2.58185e+01    9.62463e-01
    4.04206e+00    9.62457e-01    1.98486e+01

   Pressure (bar)
    2.12554e+00   -8.43207e+00   -5.89030e+00
   -8.43210e+00   -6.79769e+00   -2.61149e+00
   -5.89033e+00   -2.61148e+00   -5.35561e-01
